Circuit: * C:\Users\DELL\OneDrive\Asztali gép\7. felev\Szakdolgozat\Rendszerezett kódok\All_codes\Varicap\varicap.asc

Fatal Error: This circuit does not contain a node other than node "0" (GND)
