Circuit: *SPICE netlist one-way interconnected oscillators

Fatal Error: No analysis request found.
