Circuit: * C:\Users\DELL\OneDrive\Asztali gép\7. felev\Szakdolgozat\Rendszerezett kódok\All_codes\Basic ring oscillator\Ring_oscillator_with_cappacitance.asc

Warning: Multiple definitions of model "p_50n" Type: BSIM4
Warning: Multiple definitions of model "n_50n" Type: BSIM4
Warning: Multiple definitions of model "p_1u" Type: Mos3
Warning: Multiple definitions of model "n_1u" Type: Mos3
Direct Newton iteration for .op point succeeded.

Date: Sat Nov 04 17:46:13 2023
Total elapsed time: 2.921 seconds.

tnom = 27
temp = 27
method = modified trap
totiter = 34611
traniter = 34590
tranpoints = 9085
accept = 6551
rejected = 2534
matrix size = 243
fillins = 44
solver = Normal
Matrix Compiler1: 30.04 KB object code size  5.1/2.4/[1.3]
Matrix Compiler2: 27.36 KB object code size  2.1/2.5/[1.1]

